EV_data/reactive_data/123Bus/ieee123_Curr_Elem.Txt

CIRCUIT ELEMENT CURRENTS

(Currents into element from indicated bus)

Power Delivery Elements

  Bus    Phase    Magnitude, A     Angle      (Real)   +j  (Imag)

ELEMENT = "Vsource.SOURCE"
150          1           630.72 /_  157.1 =    -581.01 +j    245.41
150          2           416.52 /_   39.3 =      322.2 +j    263.96
150          3            509.6 /_  -79.8 =      89.83 +j   -501.62
------------
150          0           630.72 /_  -22.9 =     581.01 +j   -245.41
150          0           416.52 /_ -140.7 =     -322.2 +j   -263.96
150          0            509.6 /_  100.2 =     -89.83 +j    501.62

ELEMENT = "Transformer.REG1A"
150          1           630.72 /_  -22.9 =     581.01 +j   -245.41
150          2           416.52 /_ -140.7 =     -322.2 +j   -263.96
150          3            509.6 /_  100.2 =     -89.83 +j    501.62
150          0           169.17 /_  177.4 =    -168.99 +j    7.7556
------------
150R         1           630.72 /_  157.1 =    -581.01 +j    245.41
150R         2           416.52 /_   39.3 =      322.2 +j    263.96
150R         3            509.6 /_  -79.8 =      89.83 +j   -501.62
150R         0           169.17 /_   -2.6 =     168.99 +j   -7.7556

ELEMENT = "Line.L115"
149          1           630.72 /_  -22.9 =     581.01 +j   -245.41
149          2           416.52 /_ -140.7 =     -322.2 +j   -263.96
149          3            509.6 /_  100.2 =     -89.83 +j    501.62
------------
1            1           630.72 /_  157.1 =    -581.01 +j    245.42
1            2           416.52 /_   39.3 =      322.2 +j    263.96
1            3            509.6 /_  -79.8 =     89.829 +j   -501.62

ELEMENT = "Line.L1"
1            2           9.3377 /_ -146.9 =    -7.8222 +j   -5.0997
------------
2            2           9.3379 /_   33.1 =     7.8225 +j    5.0995

ELEMENT = "Line.L2"
1            3            46.56 /_   93.0 =    -2.4261 +j    46.496
------------
3            3            46.56 /_  -87.0 =     2.4256 +j   -46.497

ELEMENT = "Line.L3"
1            1           611.91 /_  -22.8 =     564.24 +j   -236.79
1            2           407.24 /_ -140.5 =    -314.38 +j   -258.86
1            3           463.44 /_  100.9 =    -87.403 +j    455.13
------------
7            1           611.91 /_  157.2 =    -564.24 +j    236.79
7            2           407.24 /_   39.5 =     314.38 +j    258.86
7            3           463.44 /_  -79.1 =     87.403 +j   -455.13

ELEMENT = "Line.L4"
3            3           18.833 /_   93.0 =   -0.98545 +j    18.807
------------
4            3           18.833 /_  -87.0 =    0.98509 +j   -18.807

ELEMENT = "Line.L5"
3            3           27.727 /_   93.0 =    -1.4402 +j     27.69
------------
5            3           27.728 /_  -87.0 =     1.4396 +j    -27.69

ELEMENT = "Line.L6"
5            3           18.411 /_   93.0 =   -0.95464 +j    18.386
------------
6            3           18.411 /_  -87.0 =     0.9542 +j   -18.386

ELEMENT = "Line.L7"
7            1           602.43 /_  -22.7 =     555.81 +j   -232.37
7            2           407.24 /_ -140.5 =    -314.38 +j   -258.86
7            3           463.44 /_  100.9 =    -87.403 +j    455.13
------------
8            1           602.43 /_  157.3 =    -555.81 +j    232.37
8            2           407.24 /_   39.5 =     314.38 +j    258.86
8            3           463.44 /_  -79.1 =     87.402 +j   -455.13

ELEMENT = "Line.L8"
8            2           9.3695 /_ -147.3 =    -7.8878 +j   -5.0567
------------
12           2           9.3697 /_   32.7 =     7.8882 +j    5.0565

ELEMENT = "Line.L9"
8            1           46.558 /_  -28.1 =     41.086 +j   -21.899
------------
9            1           46.558 /_  151.9 =    -41.086 +j    21.899

ELEMENT = "Line.L10"
8            1           556.09 /_  -22.2 =     514.72 +j   -210.47
8            2           397.94 /_ -140.4 =    -306.49 +j   -253.81
8            3           463.44 /_  100.9 =    -87.402 +j    455.13
------------
13           1           556.09 /_  157.8 =    -514.72 +j    210.47
13           2           397.94 /_   39.6 =     306.49 +j    253.81
13           3           463.44 /_  -79.1 =     87.401 +j   -455.13

ELEMENT = "Line.L11"
9R           1           27.365 /_  -28.1 =     24.145 +j   -12.878
------------
14           1           27.365 /_  151.9 =    -24.145 +j    12.879

ELEMENT = "Line.L12"
13           3           46.871 /_   92.3 =    -1.8608 +j    46.834
------------
34           3           46.871 /_  -87.7 =     1.8605 +j   -46.834

ELEMENT = "Line.L13"
13           1           228.82 /_  -30.4 =     197.43 +j   -115.68
13           2           154.84 /_ -155.3 =    -140.64 +j   -64.761
13           3           156.39 /_   88.7 =     3.5292 +j    156.35
------------
18           1           228.83 /_  149.6 =    -197.43 +j    115.68
18           2           154.84 /_   24.7 =     140.64 +j     64.76
18           3           156.39 /_  -91.3 =    -3.5312 +j   -156.35

ELEMENT = "Line.L14"
14           1           18.048 /_  -28.1 =     15.924 +j    -8.495
------------
11           1           18.049 /_  151.9 =    -15.924 +j    8.4955

ELEMENT = "Line.L15"
14           1           9.3168 /_  -28.1 =     8.2208 +j   -4.3842
------------
10           1            9.317 /_  151.9 =    -8.2208 +j    4.3847

ELEMENT = "Line.L16"
15           3           19.139 /_   92.3 =   -0.75537 +j    19.124
------------
16           3            19.14 /_  -87.7 =    0.75472 +j   -19.125

ELEMENT = "Line.L17"
15           3           9.5642 /_   92.3 =   -0.37957 +j    9.5567
------------
17           3           9.5646 /_  -87.7 =    0.37896 +j    -9.557

ELEMENT = "Line.L18"
18           1           38.167 /_  -28.9 =     33.408 +j   -18.457
------------
19           1           38.167 /_  151.1 =    -33.408 +j    18.458

ELEMENT = "Line.L19"
18           1           55.029 /_  -29.1 =     48.085 +j   -26.758
18           2           18.386 /_ -147.8 =    -15.564 +j   -9.7871
18           3           57.984 /_   92.2 =    -2.1862 +j    57.943
------------
21           1           55.029 /_  150.9 =    -48.085 +j    26.759
21           2           18.386 /_   32.2 =     15.565 +j    9.7867
21           3           57.984 /_  -87.8 =     2.1855 +j   -57.943

ELEMENT = "Line.L20"
19           1           18.634 /_  -28.9 =     16.309 +j   -9.0135
------------
20           1           18.634 /_  151.1 =    -16.309 +j    9.0141

ELEMENT = "Line.L21"
21           2           18.388 /_ -147.9 =    -15.569 +j   -9.7841
------------
22           2           18.388 /_   32.1 =      15.57 +j    9.7836

ELEMENT = "Line.L22"
21           1           55.029 /_  -29.1 =     48.085 +j   -26.759
21           2        0.0044538 /_  -34.8 =  0.0036558 +j -0.0025439
21           3           57.984 /_   92.2 =    -2.1855 +j    57.943
------------
23           1           55.029 /_  150.9 =    -48.085 +j     26.76
23           2         0.003747 /_  145.2 =  -0.0030757 +j 0.0021401
23           3           57.985 /_  -87.8 =     2.1849 +j   -57.944

ELEMENT = "Line.L23"
23           3            19.32 /_   92.2 =   -0.72667 +j    19.306
------------
24           3            19.32 /_  -87.8 =    0.72571 +j   -19.306

ELEMENT = "Line.L24"
23           1           55.029 /_  -29.1 =     48.085 +j    -26.76
23           2         0.003747 /_  -34.8 =  0.0030757 +j -0.0021401
23           3           38.665 /_   92.2 =    -1.4582 +j    38.638
------------
25           1            55.03 /_  150.9 =    -48.085 +j    26.761
25           2        0.0029694 /_  145.2 =  -0.0024375 +j 0.0016959
25           3           38.666 /_  -87.8 =     1.4575 +j   -38.638

ELEMENT = "Line.L25"
25R          1           18.633 /_  -29.1 =     16.278 +j   -9.0674
25R          3           19.334 /_   92.2 =   -0.72865 +j     19.32
------------
26           1           18.633 /_  150.9 =    -16.278 +j    9.0682
26           3           19.334 /_  -87.8 =    0.72795 +j    -19.32

ELEMENT = "Line.L26"
25           1           36.397 /_  -29.1 =     31.807 +j   -17.693
25           2        0.0029694 /_  -34.8 =  0.0024375 +j -0.0016959
25           3           19.332 /_   92.2 =   -0.72887 +j    19.318
------------
28           1           36.397 /_  150.9 =    -31.807 +j    17.694
28           2        0.0024038 /_  145.2 =  -0.0019732 +j 0.0013729
28           3           19.333 /_  -87.8 =    0.72838 +j   -19.319

ELEMENT = "Line.L27"
26           1           18.633 /_  -29.1 =     16.278 +j   -9.0682
26           3       0.00069692 /_ -142.4 =  -0.00055209 +j -0.00042531
------------
27           1           18.634 /_  150.9 =    -16.278 +j    9.0689
27           3      1.0914E-011 /_  180.0 =  -1.0914E-011 +j         0

ELEMENT = "Line.L28"
26           3           19.334 /_   92.2 =    -0.7274 +j    19.321
------------
31           3           19.335 /_  -87.8 =    0.72701 +j   -19.321

ELEMENT = "Line.L29"
27           1           18.634 /_  -29.1 =     16.278 +j   -9.0689
------------
33           1           18.634 /_  150.9 =    -16.278 +j    9.0699

ELEMENT = "Line.L30"
28           1           17.763 /_  -29.1 =     15.522 +j    -8.637
28           2        0.0024038 /_  -34.8 =  0.0019732 +j -0.0013729
28           3           19.333 /_   92.2 =   -0.72838 +j    19.319
------------
29           1           17.763 /_  150.9 =    -15.521 +j     8.638
29           2        0.0015554 /_  145.2 =  -0.0012768 +j 0.00088829
29           3           19.333 /_  -87.8 =    0.72763 +j   -19.319

ELEMENT = "Line.L31"
29           1        0.0017973 /_   83.5 =  0.00020396 +j 0.0017857
29           2        0.0015554 /_  -34.8 =  0.0012768 +j -0.00088829
29           3           19.333 /_   92.2 =   -0.72763 +j    19.319
------------
30           1       0.00065357 /_  -96.5 =  -7.4167E-005 +j -0.00064935
30           2        0.0005656 /_  145.2 =  -0.0004643 +j  0.000323
30           3           19.334 /_  -87.8 =    0.72676 +j    -19.32

ELEMENT = "Line.L32"
30           1       0.00065357 /_   83.5 =  7.4167E-005 +j 0.00064935
30           2        0.0005656 /_  -34.8 =  0.0004643 +j -0.000323
30           3       0.00061658 /_ -143.7 =  -0.00049689 +j -0.00036507
------------
250          1      3.3193E-011 /_  -80.5 =  5.457E-012 +j -3.2742E-011
250          2      9.0949E-012 /_ -126.9 =  -5.457E-012 +j -7.276E-012
250          3           3E-011 /_  104.0 =  -7.276E-012 +j 2.9104E-011

ELEMENT = "Line.L33"
31           3           9.6692 /_   92.2 =   -0.36314 +j    9.6624
------------
32           3           9.6695 /_  -87.9 =    0.36262 +j   -9.6627

ELEMENT = "Line.L34"
34           3           28.704 /_   92.3 =    -1.1351 +j    28.681
------------
15           3           28.704 /_  -87.7 =     1.1349 +j   -28.681

ELEMENT = "Line.L35"
35           1           17.718 /_  -29.0 =     15.496 +j   -8.5905
35           2           18.785 /_ -148.0 =    -15.926 +j   -9.9603
------------
36           1           17.719 /_  151.0 =    -15.496 +j     8.592
36           2           18.785 /_   32.0 =     15.928 +j    9.9592

ELEMENT = "Line.L36"
35           1           108.87 /_  -34.9 =      89.29 +j    -62.29
35           2           107.67 /_ -155.5 =    -98.001 +j   -44.598
35           3           98.574 /_   86.7 =     5.7186 +j    98.408
------------
40           1           108.87 /_  145.1 =     -89.29 +j     62.29
40           2           107.67 /_   24.5 =     98.002 +j    44.597
40           3           98.574 /_  -93.3 =    -5.7192 +j   -98.408

ELEMENT = "Line.L37"
36           1           17.719 /_  -29.0 =     15.496 +j    -8.592
------------
37           1           17.719 /_  151.0 =    -15.496 +j    8.5926

ELEMENT = "Line.L38"
36           2           18.785 /_ -148.0 =    -15.928 +j   -9.9592
------------
38           2           18.785 /_   32.0 =     15.928 +j    9.9589

ELEMENT = "Line.L39"
38           2           9.4684 /_ -148.0 =    -8.0285 +j   -5.0193
------------
39           2           9.4687 /_   32.0 =     8.0291 +j    5.0189

ELEMENT = "Line.L40"
40           3           9.6465 /_   92.1 =   -0.35502 +j      9.64
------------
41           3           9.6468 /_  -87.9 =    0.35445 +j   -9.6403

ELEMENT = "Line.L41"
40           1           108.87 /_  -34.9 =      89.29 +j    -62.29
40           2           107.67 /_ -155.5 =    -98.002 +j   -44.597
40           3           88.976 /_   86.1 =     6.0742 +j    88.768
------------
42           1           108.87 /_  145.1 =    -89.291 +j    62.291
42           2           107.67 /_   24.5 =     98.003 +j    44.597
42           3           88.976 /_  -93.9 =    -6.0749 +j   -88.768

ELEMENT = "Line.L42"
42           2           18.299 /_ -148.0 =    -15.525 +j   -9.6853
------------
43           2           18.299 /_   32.0 =     15.526 +j    9.6848

ELEMENT = "Line.L43"
42           1           99.127 /_  -35.5 =     80.723 +j   -57.532
42           2           89.562 /_ -157.1 =    -82.477 +j   -34.912
42           3           88.976 /_   86.1 =     6.0749 +j    88.768
------------
44           1           99.127 /_  144.5 =    -80.723 +j    57.533
44           2           89.562 /_   22.9 =     82.478 +j    34.911
44           3           88.976 /_  -93.9 =    -6.0754 +j   -88.769

ELEMENT = "Line.L44"
44           1           19.071 /_  -29.1 =     16.665 +j   -9.2735
------------
45           1           19.072 /_  150.9 =    -16.665 +j    9.2739

ELEMENT = "Line.L45"
44           1           80.202 /_  -37.0 =     64.058 +j   -48.259
44           2           89.562 /_ -157.1 =    -82.478 +j   -34.911
44           3           88.976 /_   86.1 =     6.0754 +j    88.769
------------
47           1           80.202 /_  143.0 =    -64.058 +j     48.26
47           2           89.563 /_   22.9 =     82.478 +j    34.911
47           3           88.977 /_  -93.9 =     -6.076 +j   -88.769

ELEMENT = "Line.L46"
45           1           9.7773 /_  -29.1 =     8.5433 +j   -4.7548
------------
46           1           9.7776 /_  150.9 =    -8.5433 +j    4.7554

ELEMENT = "Line.L47"
47           1           33.895 /_  -38.1 =      26.68 +j   -20.907
47           2           35.119 /_ -157.1 =    -32.342 +j   -13.688
47           3           34.476 /_   83.0 =     4.1946 +j    34.219
------------
48           1           33.896 /_  141.9 =    -26.679 +j    20.907
48           2           35.119 /_   22.9 =     32.342 +j    13.688
48           3           34.476 /_  -97.0 =     -4.195 +j    -34.22

ELEMENT = "Line.L48"
47           1           28.492 /_  -35.0 =     23.334 +j    -16.35
47           2           36.535 /_ -157.1 =    -33.646 +j   -14.241
47           3           36.776 /_   90.5 =   -0.29449 +j    36.774
------------
49           1           28.492 /_  145.0 =    -23.333 +j    16.351
49           2           36.536 /_   22.9 =     33.646 +j     14.24
49           3           36.776 /_  -89.5 =    0.29377 +j   -36.775

ELEMENT = "Line.L49"
49           1            9.771 /_  -29.1 =     8.5361 +j   -4.7547
49           2        0.0030435 /_   -9.7 =  0.0030004 +j -0.00051063
49           3           19.352 /_   92.0 =   -0.66289 +j    19.341
------------
50           1           9.7711 /_  150.9 =    -8.5359 +j    4.7553
50           2        0.0022827 /_  170.3 =  -0.0022503 +j  0.000383
50           3           19.352 /_  -88.0 =    0.66216 +j   -19.341

ELEMENT = "Line.L50"
50           1           9.7711 /_  -29.1 =     8.5359 +j   -4.7553
50           2        0.0022827 /_   -9.7 =  0.0022503 +j -0.000383
50           3        0.0023103 /_ -159.9 =  -0.0021694 +j -0.00079456
------------
51           1           9.7711 /_  150.9 =    -8.5357 +j    4.7558
51           2        0.0015218 /_  170.3 =  -0.0015002 +j 0.00025535
51           3        0.0015402 /_   20.1 =  0.0014462 +j 0.00052972

ELEMENT = "Line.L51"
51           1        0.0011707 /_   69.6 =  0.00040752 +j 0.0010975
51           2        0.0015218 /_   -9.7 =  0.0015002 +j -0.00025535
51           3        0.0015402 /_ -159.9 =  -0.0014462 +j -0.00052972
------------
151          1      7.1233E-008 /_   -2.6 =  7.1161E-008 +j -3.1896E-009
151          2      1.4158E-008 /_ -121.5 =  -7.4051E-009 +j -1.2067E-008
151          3      1.6887E-008 /_  118.6 =  -8.08E-009 +j 1.4828E-008

ELEMENT = "Line.L52"
52           1           312.16 /_  -15.9 =     300.25 +j   -85.418
52           2           251.48 /_ -131.3 =    -165.85 +j   -189.04
52           3           267.23 /_  109.5 =    -89.069 +j    251.95
------------
53           1           312.16 /_  164.1 =    -300.25 +j    85.419
53           2           251.48 /_   48.7 =     165.85 +j    189.04
53           3           267.23 /_  -70.5 =     89.068 +j   -251.95

ELEMENT = "Line.L53"
53           1           293.19 /_  -15.0 =     283.18 +j   -75.964
53           2           251.48 /_ -131.3 =    -165.85 +j   -189.04
53           3           267.23 /_  109.5 =    -89.068 +j    251.95
------------
54           1           293.19 /_  165.0 =    -283.18 +j    75.964
54           2           251.48 /_   48.7 =     165.85 +j    189.04
54           3           267.23 /_  -70.5 =     89.068 +j   -251.95

ELEMENT = "Line.L54"
54           1           8.8806 /_  -29.1 =     7.7611 +j   -4.3163
54           2            9.421 /_ -148.1 =    -7.9943 +j   -4.9847
54           3        0.0015423 /_ -155.6 =  -0.001404 +j -0.00063831
------------
55           1           8.8811 /_  150.9 =    -7.7612 +j    4.3171
55           2           9.4214 /_   31.9 =      7.995 +j    4.9842
55           3       0.00077117 /_   24.4 =  0.00070202 +j 0.00031916

ELEMENT = "Line.L55"
54           1           284.59 /_  -14.6 =     275.42 +j   -71.648
54           2           242.48 /_ -130.6 =    -157.86 +j   -184.06
54           3           267.23 /_  109.5 =    -89.066 +j    251.95
------------
57           1           284.59 /_  165.4 =    -275.42 +j    71.649
57           2           242.48 /_   49.4 =     157.86 +j    184.06
57           3           267.23 /_  -70.5 =     89.065 +j   -251.95

ELEMENT = "Line.L56"
55           1       0.00083902 /_   96.1 =  -8.8877E-005 +j 0.0008343
55           2           9.4214 /_ -148.1 =     -7.995 +j   -4.9842
55           3       0.00077117 /_ -155.6 =  -0.00070202 +j -0.00031916
------------
56           1      1.2765E-011 /_   94.1 =  -9.0949E-013 +j 1.2733E-011
56           2           9.4217 /_   31.9 =     7.9958 +j    4.9837
56           3         1.5E-011 /_ -104.0 =  -3.638E-012 +j -1.4552E-011

ELEMENT = "Line.L57"
57           2           18.775 /_ -148.3 =    -15.969 +j   -9.8726
------------
58           2           18.775 /_   31.7 =      15.97 +j    9.8723

ELEMENT = "Line.L58"
57           1           284.59 /_  -14.6 =     275.42 +j   -71.649
57           2           224.66 /_ -129.2 =    -141.89 +j   -174.18
57           3           267.23 /_  109.5 =    -89.065 +j    251.95
------------
60           1           284.59 /_  165.4 =    -275.42 +j    71.651
60           2           224.66 /_   50.8 =     141.89 +j    174.18
60           3           267.23 /_  -70.5 =     89.063 +j   -251.95

ELEMENT = "Line.L59"
58           2           9.4579 /_ -148.3 =    -8.0449 +j    -4.973
------------
59           2           9.4581 /_   31.7 =     8.0454 +j    4.9727

ELEMENT = "Line.L60"
60           1        0.0017574 /_   91.6 =  -4.7936E-005 +j 0.0017568
60           2        0.0016787 /_  -40.1 =  0.0012834 +j -0.0010821
60           3        0.0015074 /_ -149.0 =  -0.0012919 +j -0.00077661
------------
61           1       1.962E-005 /_   86.7 =  1.1379E-006 +j 1.9587E-005
61           2      2.0398E-005 /_  -31.6 =  1.7382E-005 +j -1.0676E-005
61           3      1.9991E-005 /_ -151.8 =  -1.7613E-005 +j -9.456E-006

ELEMENT = "Line.L61"
60           1           44.684 /_  -41.0 =     33.726 +j   -29.311
60           2           51.469 /_ -150.5 =    -44.806 +j   -25.327
60           3           80.298 /_   92.2 =    -3.0609 +j     80.24
------------
62           1           44.688 /_  139.0 =    -33.726 +j    29.319
62           2           51.472 /_   29.5 =     44.812 +j    25.323
62           3           80.301 /_  -87.8 =     3.0544 +j   -80.243

ELEMENT = "Line.L62"
62           1           44.688 /_  -41.0 =     33.726 +j   -29.319
62           2           51.472 /_ -150.5 =    -44.812 +j   -25.323
62           3           62.437 /_   92.5 =    -2.7002 +j    62.379
------------
63           1           44.691 /_  139.0 =    -33.725 +j    29.324
63           2           51.475 /_   29.5 =     44.816 +j    25.321
63           3           62.439 /_  -87.5 =     2.6957 +j   -62.381

ELEMENT = "Line.L63"
63           1           25.884 /_  -49.2 =     16.908 +j   -19.598
63           2           51.475 /_ -150.5 =    -44.816 +j   -25.321
63           3           62.439 /_   92.5 =    -2.6957 +j    62.381
------------
64           1           25.891 /_  130.8 =    -16.908 +j    19.608
64           2            51.48 /_   29.5 =     44.825 +j    25.315
64           3           62.444 /_  -87.5 =     2.6866 +j   -62.386

ELEMENT = "Line.L64"
64           1           25.891 /_  -49.2 =     16.908 +j   -19.608
64           2           17.187 /_ -157.6 =    -15.886 +j   -6.5602
64           3           62.444 /_   92.5 =    -2.6866 +j    62.386
------------
65           1             25.9 /_  130.8 =    -16.907 +j     19.62
65           2           17.195 /_   22.4 =     15.897 +j    6.5535
65           3           62.449 /_  -87.5 =     2.6756 +j   -62.392

ELEMENT = "Line.L65"
65           1        0.0093449 /_   86.5 =  0.00056783 +j 0.0093276
65           2        0.0096976 /_  -32.0 =  0.0082261 +j -0.0051357
65           3           36.253 /_   92.6 =    -1.6741 +j    36.214
------------
66           1      2.8761E-012 /_   18.4 =  2.7285E-012 +j 9.0949E-013
66           2      2.8761E-012 /_   71.6 =  9.0949E-013 +j 2.7285E-012
66           3           36.257 /_  -87.4 =     1.6658 +j   -36.218

ELEMENT = "Line.L66"
67           1           57.939 /_  -30.4 =     49.965 +j   -29.334
------------
68           1           57.939 /_  149.6 =    -49.965 +j    29.334

ELEMENT = "Line.L67"
67           1           116.24 /_   17.4 =     110.94 +j    34.695
67           2           128.66 /_ -111.9 =     -48.06 +j   -119.35
67           3           135.08 /_  129.0 =     -84.94 +j    105.04
------------
72           1           116.24 /_ -162.6 =    -110.94 +j   -34.695
72           2           128.66 /_   68.1 =     48.061 +j    119.35
72           3           135.08 /_  -51.0 =     84.939 +j   -105.04

ELEMENT = "Line.L68"
67           1           84.092 /_  -30.6 =     72.366 +j   -42.831
67           2           57.221 /_ -149.0 =    -49.026 +j   -29.508
67           3           66.681 /_   90.9 =      -1.06 +j    66.672
------------
97           1           84.092 /_  149.4 =    -72.366 +j    42.832
97           2           57.221 /_   31.0 =     49.026 +j    29.508
97           3           66.681 /_  -89.1 =     1.0592 +j   -66.672

ELEMENT = "Line.L69"
68           1           48.254 /_  -30.4 =     41.609 +j   -24.438
------------
69           1           48.255 /_  149.6 =    -41.609 +j    24.438

ELEMENT = "Line.L70"
69           1           28.927 /_  -30.4 =      24.94 +j   -14.656
------------
70           1           28.928 /_  149.6 =     -24.94 +j    14.657

ELEMENT = "Line.L71"
70           1           19.279 /_  -30.4 =     16.621 +j   -9.7698
------------
71           1            19.28 /_  149.6 =    -16.621 +j    9.7704

ELEMENT = "Line.L72"
72           3           56.819 /_   90.8 =   -0.79514 +j    56.813
------------
73           3           56.819 /_  -89.2 =    0.79466 +j   -56.814

ELEMENT = "Line.L73"
72           1           116.24 /_   17.4 =     110.94 +j    34.695
72           2           128.66 /_ -111.9 =    -48.061 +j   -119.35
72           3           96.984 /_  150.2 =    -84.144 +j    48.225
------------
76           1           116.24 /_ -162.6 =    -110.94 +j   -34.694
76           2           128.66 /_   68.1 =     48.061 +j    119.35
76           3           96.983 /_  -29.8 =     84.143 +j   -48.225

ELEMENT = "Line.L74"
73           3           37.329 /_   90.8 =   -0.51144 +j    37.326
------------
74           3           37.329 /_  -89.2 =    0.51083 +j   -37.326

ELEMENT = "Line.L75"
74           3            19.55 /_   90.8 =   -0.26421 +j    19.548
------------
75           3            19.55 /_  -89.2 =    0.26352 +j   -19.549

ELEMENT = "Line.L76"
76           1           70.528 /_   57.8 =     37.623 +j    59.655
76           2           73.311 /_  -60.4 =     36.192 +j   -63.754
76           3           71.657 /_  178.0 =    -71.615 +j    2.4721
------------
77           1           70.527 /_ -122.2 =    -37.623 +j   -59.653
77           2            73.31 /_  119.6 =    -36.191 +j    63.754
77           3           71.656 /_   -2.0 =     71.613 +j   -2.4728

ELEMENT = "Line.L77"
76           1           34.685 /_   -0.3 =     34.684 +j  -0.19912
76           2           60.178 /_ -131.8 =    -40.142 +j   -44.833
76           3           20.711 /_  150.4 =    -18.007 +j    10.233
------------
86           1           34.685 /_  179.7 =    -34.684 +j   0.20101
86           2           60.178 /_   48.2 =     40.144 +j    44.832
86           3            20.71 /_  -29.6 =     18.005 +j   -10.234

ELEMENT = "Line.L78"
77           1           70.527 /_   57.8 =     37.623 +j    59.653
77           2           75.335 /_  -45.8 =     52.537 +j   -53.993
77           3           71.656 /_  178.0 =    -71.613 +j    2.4728
------------
78           1           70.526 /_ -122.2 =    -37.623 +j   -59.653
78           2           75.335 /_  134.2 =    -52.537 +j    53.993
78           3           71.656 /_   -2.0 =     71.613 +j   -2.4729

ELEMENT = "Line.L79"
78           1           17.552 /_  -30.6 =     15.107 +j    -8.935
78           2       0.00063122 /_  -29.0 =  0.00055211 +j -0.00030595
78           3       0.00073886 /_ -148.8 =  -0.00063223 +j -0.00038236
------------
79           1           17.552 /_  149.4 =    -15.107 +j    8.9357
79           2      8.1348E-012 /_   26.6 =  7.276E-012 +j 3.638E-012
79           3       7.276E-012 /_    0.0 =  7.276E-012 +j         0

ELEMENT = "Line.L80"
78           1           72.189 /_   71.8 =     22.515 +j    68.588
78           2           75.334 /_  -45.8 =     52.536 +j   -53.993
78           3           71.655 /_  178.0 =    -71.612 +j    2.4733
------------
80           1           72.188 /_ -108.2 =    -22.515 +j   -68.587
80           2           75.333 /_  134.2 =    -52.535 +j    53.992
80           3           71.654 /_   -2.0 =     71.611 +j   -2.4741

ELEMENT = "Line.L81"
80           1           72.188 /_   71.8 =     22.515 +j    68.587
80           2           81.865 /_  -32.7 =     68.861 +j   -44.272
80           3           71.654 /_  178.0 =    -71.611 +j    2.4741
------------
81           1           72.187 /_ -108.2 =    -22.515 +j   -68.586
81           2           81.865 /_  147.3 =    -68.861 +j    44.272
81           3           71.653 /_   -2.0 =     71.611 +j   -2.4744

ELEMENT = "Line.L82"
81           1           72.187 /_   71.8 =     22.515 +j    68.586
81           2           81.865 /_  -32.7 =     68.861 +j   -44.272
81           3           76.198 /_ -159.5 =    -71.353 +j   -26.736
------------
82           1           72.186 /_ -108.2 =    -22.515 +j   -68.586
82           2           81.864 /_  147.3 =     -68.86 +j    44.272
82           3           76.197 /_   20.5 =     71.352 +j    26.735

ELEMENT = "Line.L83"
81           3           29.211 /_   90.5 =   -0.25761 +j     29.21
------------
84           3           29.212 /_  -89.5 =    0.25642 +j   -29.211

ELEMENT = "Line.L84"
82           1           78.764 /_   85.8 =     5.7417 +j    78.554
82           2           81.864 /_  -32.7 =      68.86 +j   -44.272
82           3           76.197 /_ -159.5 =    -71.352 +j   -26.735
------------
83           1           78.763 /_  -94.2 =    -5.7416 +j   -78.553
83           2           81.863 /_  147.3 =     -68.86 +j    44.272
83           3           76.196 /_   20.5 =     71.352 +j    26.735

ELEMENT = "Line.L85"
84           3           19.483 /_   90.5 =   -0.16828 +j    19.483
------------
85           3           19.484 /_  -89.5 =    0.16745 +j   -19.483

ELEMENT = "Line.L86"
86           1           34.685 /_   -0.3 =     34.684 +j  -0.20101
86           2           51.148 /_ -128.6 =    -31.939 +j   -39.951
86           3            20.71 /_  150.4 =    -18.005 +j    10.234
------------
87           1           34.684 /_  179.7 =    -34.684 +j   0.20234
87           2           51.148 /_   51.4 =      31.94 +j     39.95
87           3           20.709 /_  -29.6 =     18.004 +j   -10.234

ELEMENT = "Line.L87"
87           1           20.451 /_   28.1 =     18.043 +j     9.628
------------
88           1           20.451 /_ -151.9 =    -18.043 +j   -9.6276

ELEMENT = "Line.L88"
87           1           19.328 /_  -30.6 =     16.641 +j   -9.8303
87           2            33.95 /_ -117.2 =    -15.499 +j   -30.206
87           3           20.709 /_  150.4 =    -18.004 +j    10.234
------------
89           1           19.328 /_  149.4 =    -16.641 +j    9.8311
89           2            33.95 /_   62.8 =     15.499 +j    30.206
89           3           20.709 /_  -29.6 =     18.003 +j   -10.235

ELEMENT = "Line.L89"
89           2           20.501 /_  -87.3 =    0.97933 +j   -20.477
------------
90           2             20.5 /_   92.7 =   -0.97891 +j    20.477

ELEMENT = "Line.L90"
89           1           19.328 /_  -30.6 =     16.641 +j   -9.8311
89           2           19.136 /_ -149.4 =    -16.479 +j   -9.7287
89           3           20.709 /_  150.4 =    -18.003 +j    10.235
------------
91           1           19.328 /_  149.4 =    -16.641 +j    9.8318
...