EV_data/reactive_data/123Bus/ieee123_VLL_Node.Txt

LINE-LINE VOLTAGES BY BUS & NODE

Bus     Node    VLN (kV)   Angle      pu     Base kV 

150 ... 1-2     4.2016 /_   30.0      1.01     4.160
   -    2-3     4.2016 /_  -90.0      1.01     4.160
   -    3-1     4.2016 /_  150.0      1.01     4.160
150R .. 1-2          0 /_    0.0         0     4.160
   -    2-3          0 /_    0.0         0     4.160
   -    3-1          0 /_    0.0         0     4.160
149 ... 1-2          0 /_    0.0         0     4.160
   -    2-3          0 /_    0.0         0     4.160
   -    3-1          0 /_    0.0         0     4.160
1 ..... 1-2          0 /_    0.0         0     4.160
   -    2-3          0 /_    0.0         0     4.160
   -    3-1          0 /_    0.0         0     4.160
7 ..... 1-2          0 /_    0.0         0     4.160
   -    2-3          0 /_    0.0         0     4.160
   -    3-1          0 /_    0.0         0     4.160
8 ..... 1-2          0 /_    0.0         0     4.160
   -    2-3          0 /_    0.0         0     4.160
   -    3-1          0 /_    0.0         0     4.160
13 .... 1-2          0 /_    0.0         0     4.160
   -    2-3          0 /_    0.0         0     4.160
   -    3-1          0 /_    0.0         0     4.160
18 .... 1-2          0 /_    0.0         0     4.160
   -    2-3          0 /_    0.0         0     4.160
   -    3-1          0 /_    0.0         0     4.160
21 .... 1-2          0 /_    0.0         0     4.160
   -    2-3          0 /_    0.0         0     4.160
   -    3-1          0 /_    0.0         0     4.160
23 .... 1-2          0 /_    0.0         0     4.160
   -    2-3          0 /_    0.0         0     4.160
   -    3-1          0 /_    0.0         0     4.160
25 .... 1-2          0 /_    0.0         0     4.160
   -    2-3          0 /_    0.0         0     4.160
   -    3-1          0 /_    0.0         0     4.160
25R ... 3-1          0 /_    0.0         0     4.160
26 .... 3-1          0 /_    0.0         0     4.160
28 .... 1-2          0 /_    0.0         0     4.160
   -    2-3          0 /_    0.0         0     4.160
   -    3-1          0 /_    0.0         0     4.160
27 .... 3-1          0 /_    0.0         0     4.160
29 .... 1-2          0 /_    0.0         0     4.160
   -    2-3          0 /_    0.0         0     4.160
   -    3-1          0 /_    0.0         0     4.160
30 .... 1-2          0 /_    0.0         0     4.160
   -    2-3          0 /_    0.0         0     4.160
   -    3-1          0 /_    0.0         0     4.160
250 ... 1-2          0 /_    0.0         0     4.160
   -    2-3          0 /_    0.0         0     4.160
   -    3-1          0 /_    0.0         0     4.160
35 .... 1-2          0 /_    0.0         0     4.160
   -    2-3          0 /_    0.0         0     4.160
   -    3-1          0 /_    0.0         0     4.160
36 .... 1-2          0 /_    0.0         0     4.160
40 .... 1-2          0 /_    0.0         0     4.160
   -    2-3          0 /_    0.0         0     4.160
   -    3-1          0 /_    0.0         0     4.160
42 .... 1-2          0 /_    0.0         0     4.160
   -    2-3          0 /_    0.0         0     4.160
   -    3-1          0 /_    0.0         0     4.160
44 .... 1-2          0 /_    0.0         0     4.160
   -    2-3          0 /_    0.0         0     4.160
   -    3-1          0 /_    0.0         0     4.160
47 .... 1-2          0 /_    0.0         0     4.160
   -    2-3          0 /_    0.0         0     4.160
   -    3-1          0 /_    0.0         0     4.160
48 .... 1-2          0 /_    0.0         0     4.160
   -    2-3          0 /_    0.0         0     4.160
   -    3-1          0 /_    0.0         0     4.160
49 .... 1-2          0 /_    0.0         0     4.160
   -    2-3          0 /_    0.0         0     4.160
   -    3-1          0 /_    0.0         0     4.160
50 .... 1-2          0 /_    0.0         0     4.160
   -    2-3          0 /_    0.0         0     4.160
   -    3-1          0 /_    0.0         0     4.160
51 .... 1-2          0 /_    0.0         0     4.160
   -    2-3          0 /_    0.0         0     4.160
   -    3-1          0 /_    0.0         0     4.160
151 ... 1-2          0 /_    0.0         0     4.160
   -    2-3          0 /_    0.0         0     4.160
   -    3-1          0 /_    0.0         0     4.160
52 .... 1-2          0 /_    0.0         0     4.160
   -    2-3          0 /_    0.0         0     4.160
   -    3-1          0 /_    0.0         0     4.160
53 .... 1-2          0 /_    0.0         0     4.160
   -    2-3          0 /_    0.0         0     4.160
   -    3-1          0 /_    0.0         0     4.160
54 .... 1-2          0 /_    0.0         0     4.160
   -    2-3          0 /_    0.0         0     4.160
   -    3-1          0 /_    0.0         0     4.160
55 .... 1-2          0 /_    0.0         0     4.160
   -    2-3          0 /_    0.0         0     4.160
   -    3-1          0 /_    0.0         0     4.160
57 .... 1-2          0 /_    0.0         0     4.160
   -    2-3          0 /_    0.0         0     4.160
   -    3-1          0 /_    0.0         0     4.160
56 .... 1-2          0 /_    0.0         0     4.160
   -    2-3          0 /_    0.0         0     4.160
   -    3-1          0 /_    0.0         0     4.160
60 .... 1-2          0 /_    0.0         0     4.160
   -    2-3          0 /_    0.0         0     4.160
   -    3-1          0 /_    0.0         0     4.160
61 .... 1-2          0 /_    0.0         0     4.160
   -    2-3          0 /_    0.0         0     4.160
   -    3-1          0 /_    0.0         0     4.160
62 .... 1-2          0 /_    0.0         0     4.160
   -    2-3          0 /_    0.0         0     4.160
   -    3-1          0 /_    0.0         0     4.160
63 .... 1-2          0 /_    0.0         0     4.160
   -    2-3          0 /_    0.0         0     4.160
   -    3-1          0 /_    0.0         0     4.160
64 .... 1-2          0 /_    0.0         0     4.160
   -    2-3          0 /_    0.0         0     4.160
   -    3-1          0 /_    0.0         0     4.160
65 .... 1-2          0 /_    0.0         0     4.160
   -    2-3          0 /_    0.0         0     4.160
   -    3-1          0 /_    0.0         0     4.160
66 .... 1-2          0 /_    0.0         0     4.160
   -    2-3          0 /_    0.0         0     4.160
   -    3-1          0 /_    0.0         0     4.160
67 .... 1-2          0 /_    0.0         0     4.160
   -    2-3          0 /_    0.0         0     4.160
   -    3-1          0 /_    0.0         0     4.160
72 .... 1-2          0 /_    0.0         0     4.160
   -    2-3          0 /_    0.0         0     4.160
   -    3-1          0 /_    0.0         0     4.160
97 .... 1-2          0 /_    0.0         0     4.160
   -    2-3          0 /_    0.0         0     4.160
   -    3-1          0 /_    0.0         0     4.160
76 .... 1-2          0 /_    0.0         0     4.160
   -    2-3          0 /_    0.0         0     4.160
   -    3-1          0 /_    0.0         0     4.160
77 .... 1-2          0 /_    0.0         0     4.160
   -    2-3          0 /_    0.0         0     4.160
   -    3-1          0 /_    0.0         0     4.160
86 .... 1-2          0 /_    0.0         0     4.160
   -    2-3          0 /_    0.0         0     4.160
   -    3-1          0 /_    0.0         0     4.160
78 .... 1-2          0 /_    0.0         0     4.160
   -    2-3          0 /_    0.0         0     4.160
   -    3-1          0 /_    0.0         0     4.160
79 .... 1-2          0 /_    0.0         0     4.160
   -    2-3          0 /_    0.0         0     4.160
   -    3-1          0 /_    0.0         0     4.160
80 .... 1-2          0 /_    0.0         0     4.160
   -    2-3          0 /_    0.0         0     4.160
   -    3-1          0 /_    0.0         0     4.160
81 .... 1-2          0 /_    0.0         0     4.160
   -    2-3          0 /_    0.0         0     4.160
   -    3-1          0 /_    0.0         0     4.160
82 .... 1-2          0 /_    0.0         0     4.160
   -    2-3          0 /_    0.0         0     4.160
   -    3-1          0 /_    0.0         0     4.160
83 .... 1-2          0 /_    0.0         0     4.160
   -    2-3          0 /_    0.0         0     4.160
   -    3-1          0 /_    0.0         0     4.160
87 .... 1-2          0 /_    0.0         0     4.160
   -    2-3          0 /_    0.0         0     4.160
   -    3-1          0 /_    0.0         0     4.160
89 .... 1-2          0 /_    0.0         0     4.160
   -    2-3          0 /_    0.0         0     4.160
   -    3-1          0 /_    0.0         0     4.160
91 .... 1-2          0 /_    0.0         0     4.160
   -    2-3          0 /_    0.0         0     4.160
   -    3-1          0 /_    0.0         0     4.160
93 .... 1-2          0 /_    0.0         0     4.160
   -    2-3          0 /_    0.0         0     4.160
   -    3-1          0 /_    0.0         0     4.160
95 .... 1-2          0 /_    0.0         0     4.160
   -    2-3          0 /_    0.0         0     4.160
   -    3-1          0 /_    0.0         0     4.160
98 .... 1-2          0 /_    0.0         0     4.160
   -    2-3          0 /_    0.0         0     4.160
   -    3-1          0 /_    0.0         0     4.160
99 .... 1-2          0 /_    0.0         0     4.160
   -    2-3          0 /_    0.0         0     4.160
   -    3-1          0 /_    0.0         0     4.160
100 ... 1-2          0 /_    0.0         0     4.160
   -    2-3          0 /_    0.0         0     4.160
   -    3-1          0 /_    0.0         0     4.160
450 ... 1-2          0 /_    0.0         0     4.160
   -    2-3          0 /_    0.0         0     4.160
   -    3-1          0 /_    0.0         0     4.160
197 ... 1-2          0 /_    0.0         0     4.160
   -    2-3          0 /_    0.0         0     4.160
   -    3-1          0 /_    0.0         0     4.160
101 ... 1-2          0 /_    0.0         0     4.160
   -    2-3          0 /_    0.0         0     4.160
   -    3-1          0 /_    0.0         0     4.160
105 ... 1-2          0 /_    0.0         0     4.160
   -    2-3          0 /_    0.0         0     4.160
   -    3-1          0 /_    0.0         0     4.160
108 ... 1-2          0 /_    0.0         0     4.160
   -    2-3          0 /_    0.0         0     4.160
   -    3-1          0 /_    0.0         0     4.160
300 ... 1-2          0 /_    0.0         0     4.160
   -    2-3          0 /_    0.0         0     4.160
   -    3-1          0 /_    0.0         0     4.160
135 ... 1-2          0 /_    0.0         0     4.160
   -    2-3          0 /_    0.0         0     4.160
   -    3-1          0 /_    0.0         0     4.160
152 ... 1-2          0 /_    0.0         0     4.160
   -    2-3          0 /_    0.0         0     4.160
   -    3-1          0 /_    0.0         0     4.160
160R .. 1-2          0 /_    0.0         0     4.160
   -    2-3          0 /_    0.0         0     4.160
   -    3-1          0 /_    0.0         0     4.160
160 ... 1-2          0 /_    0.0         0     4.160
   -    2-3          0 /_    0.0         0     4.160
   -    3-1          0 /_    0.0         0     4.160
61S ... 1-2          0 /_    0.0         0     4.160
   -    2-3          0 /_    0.0         0     4.160
   -    3-1          0 /_    0.0         0     4.160
610 ... 1-2          0 /_    0.0         0     4.160
   -    2-3          0 /_    0.0         0     4.160
   -    3-1          0 /_    0.0         0     4.160
