EV_data/reactive_data/123Bus/ieee123_VLN.Txt

SYMMETRICAL COMPONENT VOLTAGES BY BUS (for 3-phase buses)

Bus   Mag:   V1 (kV)    p.u.     V2 (kV)   %V2/V1    V0 (kV)    %V0/V1

150      2.426       1.01  7.508E-006  0.0003095 6.807E-006 0.0002806
150r     2.426       1.01  1.011E-005  0.0004166 9.163E-006 0.0003777
149      2.426       1.01  1.011E-005  0.0004166 9.163E-006 0.0003777
1        2.406      1.002   0.006743     0.2802   0.01152    0.4788
2        2.421      1.008          0          0         0         0
3        2.399     0.9989          0          0         0         0
7        2.392     0.9961    0.01149     0.4805   0.02012    0.8411
4        2.398     0.9983          0          0         0         0
5        2.396     0.9976          0          0         0         0
6        2.394     0.9969          0          0         0         0
8        2.383     0.9923    0.01459     0.6123   0.02563     1.075
12       2.416      1.006          0          0         0         0
9        2.351     0.9787          0          0         0         0
13        2.37     0.9868    0.01881     0.7937   0.03235     1.365
9r       2.351     0.9787          0          0         0         0
14       2.347      0.977          0          0         0         0
34       2.361     0.9832          0          0         0         0
18       2.354     0.9799    0.01984     0.8428   0.04188     1.779
11       2.345     0.9764          0          0         0         0
10       2.346     0.9767          0          0         0         0
15        2.36     0.9828          0          0         0         0
16       2.358     0.9818          0          0         0         0
17       2.359     0.9823          0          0         0         0
19       2.306     0.9603          0          0         0         0
21       2.352     0.9794    0.02014     0.8561   0.04285     1.822
20       2.304     0.9595          0          0         0         0
22       2.403          1          0          0         0         0
23       2.351      0.979    0.02059     0.8759   0.04411     1.876
24       2.336     0.9727          0          0         0         0
25        2.35     0.9786    0.02108     0.8967    0.0457     1.945
25r      2.306     0.9601          0          0         0         0
26       2.305     0.9599          0          0         0         0
28        2.35     0.9784     0.0213     0.9065   0.04651     1.979
27       2.305     0.9595          0          0         0         0
31       2.335     0.9721          0          0         0         0
33       2.301     0.9582          0          0         0         0
29        2.35     0.9783    0.02148     0.9144   0.04702     2.001
30       2.349     0.9782    0.02152     0.9159   0.04683     1.993
250      2.349     0.9782    0.02152     0.9159   0.04683     1.993
32       2.334     0.9717          0          0         0         0
35       2.348     0.9778    0.02061     0.8777   0.04269     1.818
36         2.3     0.9576          0          0         0         0
40       2.345     0.9765    0.02095     0.8931   0.04274     1.822
37       2.298     0.9568          0          0         0         0
38       2.398     0.9985          0          0         0         0
39       2.397      0.998          0          0         0         0
41       2.339     0.9739          0          0         0         0
42       2.343     0.9753    0.02126     0.9076    0.0429     1.831
43       2.392     0.9961          0          0         0         0
44        2.34     0.9745    0.02157     0.9217   0.04309     1.841
45       2.291     0.9537          0          0         0         0
47       2.338     0.9734    0.02177      0.931   0.04271     1.827
46        2.29     0.9533          0          0         0         0
48       2.337     0.9732    0.02182     0.9337   0.04264     1.824
49       2.337      0.973    0.02184     0.9346   0.04227     1.809
50       2.337     0.9729    0.02199     0.9412   0.04235     1.812
51       2.337     0.9729    0.02209     0.9452   0.04265     1.825
151      2.337     0.9729    0.02209     0.9452   0.04265     1.825
52       2.361     0.9831    0.02189     0.9273   0.03737     1.583
53       2.357     0.9813    0.02329      0.988   0.03939     1.671
54       2.354     0.9802    0.02406      1.022   0.04033     1.713
55       2.354     0.9801    0.02406      1.022   0.04043     1.717
57       2.347     0.9772    0.02453      1.045   0.04196     1.788
56       2.354     0.9801    0.02396      1.018    0.0402     1.708
58       2.401     0.9995          0          0         0         0
60       2.332      0.971    0.02623      1.125   0.04675     2.005
59         2.4     0.9992          0          0         0         0
61       2.332      0.971    0.02623      1.125   0.04675     2.005
62       2.329     0.9696    0.02574      1.105   0.04716     2.025
63       2.327     0.9688     0.0255      1.096    0.0472     2.028
64       2.323     0.9674    0.02452      1.055   0.04681     2.015
65        2.32      0.966    0.02389       1.03    0.0492      2.12
66       2.319     0.9657    0.02361      1.018   0.05048     2.176
67       2.327     0.9691     0.0264      1.134   0.05006     2.151
68       2.271     0.9455          0          0         0         0
72       2.327     0.9687    0.02614      1.123   0.04965     2.134
97       2.326     0.9683     0.0267      1.148   0.05075     2.182
69       2.266     0.9436          0          0         0         0
70       2.263     0.9423          0          0         0         0
71       2.261     0.9415          0          0         0         0
73       2.312     0.9626          0          0         0         0
76       2.326     0.9686    0.02588      1.112   0.04974     2.138
74       2.308     0.9608          0          0         0         0
75       2.305     0.9597          0          0         0         0
77       2.329     0.9695    0.02575      1.106   0.04978     2.138
86       2.325     0.9681    0.02498      1.074   0.04862     2.091
78       2.329     0.9698     0.0258      1.108   0.04996     2.145
79       2.329     0.9697    0.02592      1.113   0.05047     2.167
80       2.333     0.9712    0.02578      1.105   0.04975     2.133
81       2.334     0.9717    0.02592      1.111   0.04999     2.142
82       2.336     0.9726    0.02612      1.118   0.05056     2.164
84       2.316     0.9643          0          0         0         0
83       2.338     0.9736    0.02618       1.12    0.0505      2.16
85       2.313      0.963          0          0         0         0
87       2.324     0.9678    0.02452      1.055   0.04844     2.084
88       2.269     0.9447          0          0         0         0
89       2.324     0.9676    0.02447      1.053   0.04828     2.078
90        2.38     0.9911          0          0         0         0
91       2.324     0.9675    0.02461      1.059   0.04792     2.062
92       2.324     0.9676          0          0         0         0
93       2.323     0.9674    0.02459      1.058   0.04817     2.073
94       2.265     0.9431          0          0         0         0
95       2.323     0.9673    0.02437      1.049   0.04775     2.055
96       2.378     0.9901          0          0         0         0
98       2.325     0.9681    0.02671      1.149   0.05075     2.183
99       2.324     0.9678    0.02635      1.134   0.04944     2.127
100      2.324     0.9677    0.02639      1.135   0.04927      2.12
450      2.324     0.9677    0.02639      1.135   0.04927      2.12
197      2.326     0.9683     0.0267      1.148   0.05075     2.182
101      2.324     0.9677    0.02698      1.161   0.05143     2.213
102      2.311     0.9623          0          0         0         0
105      2.323     0.9673    0.02723      1.172   0.05266     2.267
103      2.307     0.9605          0          0         0         0
104      2.302     0.9586          0          0         0         0
106      2.385     0.9929          0          0         0         0
108      2.322      0.967    0.02802      1.206   0.05526      2.38
107      2.381     0.9914          0          0         0         0
109      2.254     0.9384          0          0         0         0
300      2.322      0.967    0.02802      1.206   0.05526      2.38
110      2.249     0.9364          0          0         0         0
111      2.247     0.9356          0          0         0         0
112      2.248     0.9358          0          0         0         0
113      2.243     0.9338          0          0         0         0
114      2.242     0.9333          0          0         0         0
135      2.354     0.9799    0.01984     0.8428   0.04188     1.779
152       2.37     0.9868    0.01881     0.7937   0.03235     1.365
160r     2.332      0.971    0.02623      1.125   0.04675     2.005
160      2.332      0.971    0.02623      1.125   0.04675     2.005
61s      2.332      0.971    0.02623      1.125   0.04675     2.005
610     0.2691      0.971   0.003026      1.125  0.005394     2.005
