EV_data/reactive_data/123Bus/ieee123_VLN_Node.Txt

LINE-GROUND and LINE-LINE VOLTAGES BY BUS & NODE

Bus  Node    VLN (kV)   Angle      pu     Base kV    Node-Node   VLL (kV)  Angle      pu

150  1       2.4258 /_    0.0      1.01     4.160        1-2     4.2016 /_   30.0      1.01
   - 2       2.4258 /_ -120.0      1.01     4.160        2-3     4.2016 /_  -90.0      1.01
   - 3       2.4258 /_  120.0      1.01     4.160        3-1     4.2016 /_  150.0      1.01
150R 1       2.3789 /_   -2.4   0.99048     4.160        1-2     4.1241 /_   28.2   0.99137
   - 2       2.4028 /_ -121.6    1.0004     4.160        2-3     4.1617 /_  -91.8    1.0004
   - 3       2.3926 /_  118.0   0.99618     4.160        3-1     4.1403 /_  147.7   0.99526
149  1       2.3789 /_   -2.4   0.99048     4.160        1-2     4.1241 /_   28.2   0.99137
   - 2       2.4028 /_ -121.6    1.0004     4.160        2-3     4.1617 /_  -91.8    1.0004
   - 3       2.3926 /_  118.0   0.99618     4.160        3-1     4.1403 /_  147.7   0.99526
1 .. 1        2.347 /_   -3.0    0.9772     4.160        1-2      4.086 /_   27.9   0.98221
   - 2       2.3982 /_ -121.9   0.99853     4.160        2-3     4.1387 /_  -92.3   0.99488
   - 3       2.3698 /_  117.7    0.9867     4.160        3-1     4.0988 /_  147.2   0.98529
2 .. 2       2.3977 /_ -121.9    0.9983     4.160
3 .. 3       2.3659 /_  117.6   0.98505     4.160
7 .. 1       2.3233 /_   -3.5   0.96733     4.160        1-2     4.0584 /_   27.7   0.97558
   - 2       2.3951 /_ -122.2   0.99722     4.160        2-3     4.1226 /_  -92.7   0.99101
   - 3        2.355 /_  117.4   0.98052     4.160        3-1     4.0702 /_  146.7   0.97842
4 .. 3       2.3646 /_  117.6   0.98452     4.160
5 .. 3       2.3628 /_  117.6   0.98378     4.160
6 .. 3       2.3613 /_  117.6   0.98313     4.160
8 .. 1       2.3079 /_   -3.8   0.96092     4.160        1-2     4.0403 /_   27.5   0.97122
   - 2       2.3929 /_ -122.3   0.99629     4.160        2-3     4.1119 /_  -92.9   0.98843
   - 3       2.3452 /_  117.2   0.97643     4.160        3-1     4.0514 /_  146.4    0.9739
12 . 2       2.3921 /_ -122.3   0.99599     4.160
9 .. 1       2.3044 /_   -3.9   0.95944     4.160
13 . 1       2.2874 /_   -4.3   0.95238     4.160        1-2      4.015 /_   27.3   0.96515
   - 2       2.3887 /_ -122.6   0.99454     4.160        2-3      4.096 /_  -93.2   0.98463
   - 3       2.3304 /_  117.0    0.9703     4.160        3-1     4.0241 /_  146.0   0.96733
9R . 1       2.3026 /_   -4.0   0.95871     4.160
14 . 1       2.2987 /_   -4.0   0.95708     4.160
34 . 3        2.328 /_  116.9    0.9693     4.160
18 . 1       2.2641 /_   -4.8   0.94267     4.160        1-2     3.9843 /_   27.1   0.95776
   - 2        2.381 /_ -122.9   0.99137     4.160        2-3     4.0693 /_  -93.5   0.97819
   - 3       2.3121 /_  116.9   0.96268     4.160        3-1      3.996 /_  145.7   0.96058
11 . 1       2.2972 /_   -4.0   0.95645     4.160
10 . 1       2.2979 /_   -4.0   0.95675     4.160
15 . 3       2.3271 /_  116.9   0.96889     4.160
16 . 3       2.3246 /_  116.9   0.96788     4.160
17 . 3       2.3259 /_  116.9   0.96842     4.160
19 . 1       2.2609 /_   -4.8   0.94134     4.160
21 . 1       2.2629 /_   -4.8   0.94219     4.160        1-2     3.9822 /_   27.0   0.95726
   - 2       2.3812 /_ -122.9   0.99141     4.160        2-3     4.0674 /_  -93.5   0.97775
   - 3       2.3092 /_  116.9   0.96145     4.160        3-1      3.993 /_  145.7   0.95985
20 . 1       2.2588 /_   -4.8   0.94049     4.160
22 . 2       2.3779 /_ -122.9   0.99004     4.160
23 . 1       2.2621 /_   -4.9   0.94182     4.160        1-2     3.9807 /_   27.0    0.9569
   - 2        2.382 /_ -122.8   0.99178     4.160        2-3     4.0665 /_  -93.5   0.97753
   - 3       2.3064 /_  116.9   0.96029     4.160        3-1     3.9904 /_  145.7   0.95924
24 . 3       2.3028 /_  116.8   0.95878     4.160
25 . 1       2.2606 /_   -4.9   0.94121     4.160        1-2      3.979 /_   27.0   0.95648
   - 2       2.3831 /_ -122.8   0.99221     4.160        2-3     4.0658 /_  -93.5   0.97736
   - 3       2.3042 /_  116.9   0.95938     4.160        3-1     3.9883 /_  145.7   0.95873
25R  1       2.2594 /_   -5.0   0.94071     4.160
   - 3        2.303 /_  116.8   0.95886     4.160        3-1     3.9862 /_  145.6   0.95821
26 . 1       2.2588 /_   -5.0   0.94047     4.160
   - 3       2.3017 /_  116.8   0.95835     4.160        3-1     3.9849 /_  145.6    0.9579
28 . 1       2.2597 /_   -4.9   0.94086     4.160        1-2     3.9781 /_   27.0   0.95627
   - 2       2.3836 /_ -122.8   0.99243     4.160        2-3     4.0655 /_  -93.5   0.97729
   - 3       2.3034 /_  116.9   0.95904     4.160        3-1     3.9875 /_  145.7   0.95853
27 . 1        2.258 /_   -5.0   0.94012     4.160
   - 3       2.3017 /_  116.8   0.95832     4.160        3-1     3.9846 /_  145.6   0.95784
31 . 3       2.3003 /_  116.8   0.95773     4.160
33 . 1       2.2548 /_   -5.1   0.93882     4.160
29 . 1       2.2594 /_   -5.0   0.94073     4.160        1-2     3.9775 /_   27.0   0.95613
   - 2       2.3839 /_ -122.8   0.99257     4.160        2-3     4.0652 /_  -93.6   0.97721
   - 3       2.3023 /_  116.9   0.95857     4.160        3-1     3.9865 /_  145.6   0.95829
30 . 1       2.2601 /_   -5.0   0.94101     4.160        1-2     3.9776 /_   27.0   0.95616
   - 2       2.3838 /_ -122.8   0.99253     4.160        2-3     4.0649 /_  -93.6   0.97713
   - 3       2.3011 /_  116.8   0.95809     4.160        3-1     3.9856 /_  145.6   0.95809
250  1       2.2601 /_   -5.0   0.94101     4.160        1-2     3.9776 /_   27.0   0.95616
   - 2       2.3838 /_ -122.8   0.99253     4.160        2-3     4.0649 /_  -93.6   0.97713
   - 3       2.3011 /_  116.8   0.95809     4.160        3-1     3.9856 /_  145.6   0.95809
32 . 3       2.2993 /_  116.8   0.95732     4.160
35 . 1       2.2565 /_   -4.9   0.93952     4.160        1-2     3.9733 /_   27.0   0.95512
   - 2        2.376 /_ -122.9   0.98926     4.160        2-3     4.0617 /_  -93.5   0.97637
   - 3       2.3094 /_  116.9   0.96155     4.160        3-1      3.988 /_  145.6   0.95865
36 . 1       2.2544 /_   -4.9   0.93863     4.160        1-2     3.9711 /_   27.0   0.95458
   - 2       2.3748 /_ -123.0   0.98875     4.160
40 . 1       2.2529 /_   -4.9   0.93802     4.160        1-2     3.9681 /_   27.0   0.95386
   - 2       2.3732 /_ -123.0   0.98811     4.160        2-3     4.0571 /_  -93.6   0.97527
   - 3       2.3069 /_  116.8    0.9605     4.160        3-1     3.9825 /_  145.6   0.95732
37 . 1       2.2526 /_   -4.9   0.93789     4.160
38 . 2       2.3732 /_ -123.0   0.98809     4.160
39 . 2       2.3721 /_ -123.0   0.98765     4.160
41 . 3       2.3058 /_  116.8   0.96006     4.160
42 . 1       2.2491 /_   -4.9   0.93645     4.160        1-2     3.9628 /_   26.9   0.95261
   - 2       2.3705 /_ -123.0   0.98698     4.160        2-3     4.0527 /_  -93.6    0.9742
   - 3       2.3048 /_  116.8   0.95963     4.160        3-1     3.9772 /_  145.5   0.95607
43 . 2       2.3674 /_ -123.1   0.98568     4.160
44 . 1       2.2466 /_   -5.0   0.93537     4.160        1-2     3.9591 /_   26.9   0.95171
   - 2       2.3688 /_ -123.1   0.98625     4.160        2-3     4.0496 /_  -93.6   0.97346
   - 3       2.3028 /_  116.7   0.95881     4.160        3-1     3.9732 /_  145.5    0.9551
45 . 1       2.2453 /_   -5.0   0.93484     4.160
47 . 1       2.2441 /_   -5.0   0.93435     4.160        1-2      3.955 /_   26.9   0.95072
   - 2       2.3661 /_ -123.1   0.98516     4.160        2-3     4.0456 /_  -93.7    0.9725
   - 3       2.3005 /_  116.7   0.95782     4.160        3-1     3.9685 /_  145.5   0.95396
46 . 1       2.2443 /_   -5.0   0.93443     4.160
48 . 1       2.2435 /_   -5.0   0.93409     4.160        1-2     3.9539 /_   26.9   0.95045
   - 2       2.3655 /_ -123.1   0.98488     4.160        2-3     4.0446 /_  -93.7   0.97227
   - 3          2.3 /_  116.7   0.95761     4.160        3-1     3.9674 /_  145.5   0.95371
49 . 1       2.2434 /_   -5.0   0.93408     4.160        1-2     3.9533 /_   26.9    0.9503
   - 2       2.3648 /_ -123.1   0.98459     4.160        2-3     4.0441 /_  -93.7   0.97213
   - 3       2.2997 /_  116.7   0.95748     4.160        3-1     3.9668 /_  145.4   0.95356
50 . 1       2.2434 /_   -5.0   0.93406     4.160        1-2     3.9528 /_   26.9    0.9502
   - 2       2.3648 /_ -123.1   0.98461     4.160        2-3     4.0438 /_  -93.7   0.97208
   - 3       2.2988 /_  116.7   0.95713     4.160        3-1      3.966 /_  145.4   0.95337
51 . 1        2.243 /_   -5.0   0.93389     4.160        1-2     3.9525 /_   26.9   0.95012
   - 2        2.365 /_ -123.1   0.98469     4.160        2-3     4.0439 /_  -93.7   0.97208
   - 3       2.2988 /_  116.7   0.95712     4.160        3-1     3.9659 /_  145.4   0.95334
151  1        2.243 /_   -5.0   0.93389     4.160        1-2     3.9525 /_   26.9   0.95012
   - 2        2.365 /_ -123.1   0.98469     4.160        2-3     4.0439 /_  -93.7   0.97208
   - 3       2.2988 /_  116.7   0.95712     4.160        3-1     3.9659 /_  145.4   0.95334
52 . 1       2.2721 /_   -4.7   0.94599     4.160        1-2     3.9972 /_   27.1   0.96086
   - 2       2.3859 /_ -122.9   0.99339     4.160        2-3     4.0855 /_  -93.5   0.98209
   - 3       2.3215 /_  116.7   0.96656     4.160        3-1     4.0055 /_  145.7   0.96287
53 . 1       2.2651 /_   -4.8   0.94309     4.160        1-2     3.9888 /_   27.0   0.95884
   - 2       2.3842 /_ -123.0   0.99267     4.160        2-3     4.0802 /_  -93.7   0.98081
   - 3        2.317 /_  116.6   0.96472     4.160        3-1     3.9965 /_  145.5    0.9607
54 . 1       2.2611 /_   -4.9   0.94145     4.160        1-2     3.9838 /_   26.9   0.95765
   - 2       2.3829 /_ -123.1   0.99212     4.160        2-3     4.0768 /_  -93.8      0.98
   - 3       2.3143 /_  116.5   0.96358     4.160        3-1      3.991 /_  145.4   0.95938
55 . 1       2.2607 /_   -4.9   0.94125     4.160        1-2     3.9834 /_   26.9   0.95755
   - 2       2.3826 /_ -123.1   0.99204     4.160        2-3     4.0765 /_  -93.8   0.97993
   - 3       2.3145 /_  116.5   0.96366     4.160        3-1     3.9909 /_  145.4   0.95934
57 . 1       2.2529 /_   -5.2   0.93803     4.160        1-2     3.9694 /_   26.7   0.95418
   - 2       2.3764 /_ -123.3   0.98942     4.160        2-3     4.0649 /_  -94.0   0.97715
   - 3       2.3071 /_  116.3   0.96059     4.160        3-1     3.9793 /_  145.1   0.95656
56 . 1       2.2606 /_   -4.9   0.94121     4.160        1-2     3.9833 /_   26.9   0.95751
   - 2       2.3822 /_ -123.1   0.99186     4.160        2-3     4.0762 /_  -93.8   0.97985
   - 3       2.3147 /_  116.5   0.96375     4.160        3-1     3.9908 /_  145.4   0.95933
58 . 2       2.3748 /_ -123.3   0.98875     4.160
60 . 1       2.2358 /_   -5.9    0.9309     4.160        1-2     3.9394 /_   26.2   0.94696
   - 2       2.3649 /_ -123.7   0.98465     4.160        2-3     4.0414 /_  -94.4   0.97148
   - 3       2.2904 /_  115.8   0.95365     4.160        3-1     3.9542 /_  144.6   0.95053
59 . 2        2.374 /_ -123.3   0.98842     4.160
61 . 1       2.2358 /_   -5.9    0.9309     4.160        1-2     3.9394 /_   26.2   0.94696
   - 2       2.3649 /_ -123.7   0.98465     4.160        2-3     4.0414 /_  -94.4   0.97148
   - 3       2.2904 /_  115.8   0.95365     4.160        3-1     3.9542 /_  144.6   0.95053
62 . 1       2.2346 /_   -5.9    0.9304     4.160        1-2     3.9353 /_   26.2   0.94598
   - 2       2.3625 /_ -123.6   0.98363     4.160        2-3     4.0351 /_  -94.5   0.96997
   - 3       2.2847 /_  115.8   0.95127     4.160        3-1     3.9483 /_  144.6   0.94912
63 . 1       2.2336 /_   -5.9   0.92998     4.160        1-2     3.9324 /_   26.2   0.94529
   - 2       2.3606 /_ -123.6   0.98285     4.160        2-3     4.0313 /_  -94.5   0.96905
   - 3       2.2818 /_  115.8   0.95003     4.160        3-1     3.9448 /_  144.6   0.94828
64 . 1       2.2338 /_   -5.9   0.93005     4.160        1-2     3.9279 /_   26.2    0.9442
   - 2       2.3565 /_ -123.6   0.98113     4.160        2-3     4.0236 /_  -94.5    0.9672
   - 3       2.2754 /_  115.8   0.94737     4.160        3-1     3.9391 /_  144.6   0.94689
65 . 1       2.2333 /_   -6.0   0.92985     4.160        1-2     3.9251 /_   26.2   0.94353
   - 2       2.3562 /_ -123.5   0.98101     4.160        2-3     4.0168 /_  -94.5   0.96558
   - 3       2.2667 /_  115.8   0.94377     4.160        3-1     3.9321 /_  144.7   0.94521
66 . 1       2.2339 /_   -6.0    0.9301     4.160        1-2      3.925 /_   26.2   0.94351
   - 2       2.3568 /_ -123.5   0.98126     4.160        2-3     4.0147 /_  -94.5   0.96508
   - 3        2.263 /_  115.8    0.9422     4.160        3-1     3.9298 /_  144.7   0.94466
67 . 1       2.2245 /_   -7.1   0.92618     4.160        1-2     3.9223 /_   25.3   0.94285
   - 2       2.3643 /_ -124.5   0.98438     4.160        2-3     4.0357 /_  -95.3   0.97012
   - 3       2.2841 /_  115.0     0.951     4.160        3-1     3.9449 /_  143.6   0.94829
68 . 1       2.2206 /_   -7.1   0.92457     4.160
72 . 1       2.2242 /_   -7.2   0.92606     4.160        1-2     3.9207 /_   25.2   0.94248
   - 2       2.3626 /_ -124.6    0.9837     4.160        2-3     4.0336 /_  -95.4    0.9696
   - 3       2.2832 /_  114.9   0.95063     4.160        3-1     3.9436 /_  143.5   0.94799
97 . 1       2.2221 /_   -7.1   0.92519     4.160        1-2     3.9184 /_   25.3   0.94193
   - 2       2.3629 /_ -124.5   0.98383     4.160        2-3      4.033 /_  -95.3   0.96946
   - 3       2.2823 /_  115.0   0.95027     4.160        3-1     3.9419 /_  143.5   0.94757
69 . 1       2.2162 /_   -7.1   0.92273     4.160
70 . 1       2.2131 /_   -7.2   0.92142     4.160
71 . 1       2.2113 /_   -7.2   0.92069     4.160
73 . 3       2.2779 /_  114.9   0.94843     4.160
76 . 1        2.223 /_   -7.2   0.92558     4.160        1-2     3.9198 /_   25.1   0.94225
   - 2       2.3617 /_ -124.7   0.98332     4.160        2-3     4.0326 /_  -95.5   0.96937
   - 3       2.2845 /_  114.9   0.95116     4.160        3-1     3.9442 /_  143.4   0.94813
74 . 3       2.2735 /_  114.8   0.94659     4.160
75 . 3       2.2708 /_  114.8   0.94548     4.160
77 . 1       2.2254 /_   -7.3   0.92655     4.160        1-2     3.9243 /_   25.0   0.94333
   - 2       2.3642 /_ -124.8   0.98437     4.160        2-3     4.0362 /_  -95.6   0.97024
   - 3       2.2862 /_  114.8   0.95187     4.160        3-1     3.9475 /_  143.3   0.94893
86 . 1       2.2204 /_   -7.3    0.9245     4.160        1-2     3.9166 /_   25.0    0.9415
   - 2       2.3572 /_ -124.9   0.98146     4.160        2-3     4.0286 /_  -95.5   0.96842
   - 3       2.2877 /_  114.8   0.95252     4.160        3-1     3.9449 /_  143.3   0.94828
78 . 1        2.226 /_   -7.3   0.92681     4.160        1-2     3.9255 /_   25.0   0.94362
   - 2       2.3652 /_ -124.8   0.98477     4.160        2-3     4.0374 /_  -95.6   0.97052
   - 3       2.2865 /_  114.8   0.95199     4.160        3-1     3.9484 /_  143.3   0.94912
79 . 1       2.2253 /_   -7.3   0.92654     4.160        1-2     3.9249 /_   25.0   0.94349
   - 2       2.3655 /_ -124.8   0.98489     4.160        2-3     4.0373 /_  -95.6    0.9705
   - 3       2.2864 /_  114.8   0.95195     4.160        3-1     3.9482 /_  143.3   0.94907
80 . 1       2.2303 /_   -7.4   0.92862     4.160        1-2     3.9324 /_   24.9   0.94529
   - 2       2.3691 /_ -124.9    0.9864     4.160        2-3      4.043 /_  -95.7   0.97188
   - 3        2.288 /_  114.7   0.95262     4.160        3-1     3.9526 /_  143.2   0.95016
81 . 1        2.232 /_   -7.4   0.92931     4.160        1-2     3.9351 /_   24.9   0.94595
   - 2       2.3711 /_ -124.9   0.98723     4.160        2-3     4.0456 /_  -95.7   0.97249
   - 3       2.2883 /_  114.6   0.95274     4.160        3-1     3.9542 /_  143.2   0.95053
82 . 1       2.2336 /_   -7.5      0.93     4.160        1-2     3.9389 /_   24.9   0.94686
   - 2       2.3741 /_ -124.9   0.98847     4.160        2-3     4.0495 /_  -95.8   0.97345
   - 3       2.2899 /_  114.6   0.95342     4.160        3-1     3.9573 /_  143.2   0.95128
84 . 3       2.2815 /_  114.6   0.94993     4.160
83 . 1       2.2361 /_   -7.5   0.93103     4.160        1-2     3.9434 /_   24.9   0.94793
   - 2       2.3767 /_ -124.9   0.98957     4.160        2-3     4.0536 /_  -95.8   0.97443
   - 3       2.2917 /_  114.5   0.95416     4.160        3-1     3.9607 /_  143.1   0.95209
85 . 3       2.2784 /_  114.5   0.94862     4.160
87 . 1       2.2189 /_   -7.3   0.92386     4.160        1-2      3.915 /_   24.9   0.94111
   - 2       2.3552 /_ -125.0   0.98062     4.160        2-3     4.0264 /_  -95.6   0.96788
   - 3       2.2889 /_  114.8   0.95302     4.160        3-1     3.9447 /_  143.3   0.94825
88 . 1       2.2186 /_   -7.3   0.92375     4.160
89 . 1       2.2179 /_   -7.3   0.92344     4.160        1-2     3.9146 /_   24.9   0.94101
   - 2       2.3545 /_ -125.0   0.98033     4.160        2-3     4.0258 /_  -95.6   0.96773
   - 3       2.2898 /_  114.8   0.95336     4.160        3-1     3.9442 /_  143.3   0.94813
90 . 2       2.3543 /_ -125.1   0.98022     4.160
91 . 1       2.2174 /_   -7.3   0.92323     4.160        1-2     3.9138 /_   24.9   0.94083
   - 2       2.3538 /_ -125.0      0.98     4.160        2-3     4.0255 /_  -95.6   0.96766
   - 3       2.2901 /_  114.8   0.95352     4.160        3-1     3.9438 /_  143.2   0.94803
92 . 3       2.2897 /_  114.7   0.95333     4.160
93 . 1       2.2166 /_   -7.3    0.9229     4.160        1-2      3.913 /_   24.9   0.94063
   - 2       2.3533 /_ -125.1   0.97984     4.160        2-3     4.0248 /_  -95.6   0.96751
   - 3       2.2904 /_  114.8   0.95362     4.160        3-1     3.9436 /_  143.2   0.94798
94 . 1       2.2148 /_   -7.3   0.92216     4.160
95 . 1       2.2165 /_   -7.3   0.92286     4.160        1-2     3.9127 /_   24.8   0.94056
   - 2       2.3524 /_ -125.1   0.97944     4.160        2-3     4.0241 /_  -95.6   0.96733
   - 3       2.2909 /_  114.8   0.95382     4.160        3-1     3.9436 /_  143.2   0.94799
96 . 2       2.3517 /_ -125.1   0.97917     4.160
98 . 1       2.2215 /_   -7.1   0.92494     4.160        1-2     3.9174 /_   25.2   0.94168
   - 2       2.3623 /_ -124.5   0.98357     4.160        2-3      4.032 /_  -95.3   0.96924
   - 3       2.2819 /_  115.0   0.95011     4.160        3-1     3.9411 /_  143.5   0.94738
99 . 1       2.2221 /_   -7.1    0.9252     4.160        1-2     3.9167 /_   25.2   0.94152
   - 2       2.3603 /_ -124.5   0.98273     4.160        2-3     4.0303 /_  -95.3   0.96881
   - 3       2.2813 /_  115.0   0.94985     4.160        3-1       3.94 /_  143.5   0.94713
100  1       2.2226 /_   -7.1   0.92538     4.160        1-2     3.9167 /_   25.2   0.94151
   - 2       2.3601 /_ -124.5   0.98267     4.160        2-3       4.03 /_  -95.4   0.96875
   - 3       2.2804 /_  114.9   0.94948     4.160        3-1     3.9394 /_  143.5   0.94696
450  1       2.2226 /_   -7.1   0.92538     4.160        1-2     3.9167 /_   25.2   0.94151
   - 2       2.3601 /_ -124.5   0.98267     4.160        2-3       4.03 /_  -95.4   0.96875
   - 3       2.2804 /_  114.9   0.94948     4.160        3-1     3.9394 /_  143.5   0.94696
197  1       2.2221 /_   -7.1   0.92519     4.160        1-2     3.9184 /_   25.3   0.94193
   - 2       2.3629 /_ -124.5   0.98383     4.160        2-3      4.033 /_  -95.3   0.96946
   - 3       2.2823 /_  115.0   0.95027     4.160        3-1     3.9419 /_  143.5   0.94757
101  1       2.2202 /_   -7.2   0.92441     4.160        1-2     3.9156 /_   25.2   0.94124
   - 2       2.3622 /_ -124.5   0.98351     4.160        2-3     4.0311 /_  -95.3   0.96901
   - 3        2.281 /_  115.0    0.9497     4.160        3-1     3.9397 /_  143.5   0.94704
102  3       2.2772 /_  115.0   0.94815     4.160
105  1       2.2171 /_   -7.2   0.92309     4.160        1-2     3.9126 /_   25.2   0.94053
   - 2       2.3617 /_ -124.6   0.98331     4.160        2-3     4.0297 /_  -95.3   0.96868
   - 3       2.2817 /_  115.0      0.95     4.160        3-1      3.939 /_  143.5   0.94687
103  3       2.2729 /_  114.9   0.94635     4.160
104  3       2.2683 /_  114.9   0.94442     4.160
106  2       2.3588 /_ -124.6    0.9821     4.160
108  1       2.2136 /_   -7.3   0.92164     4.160        1-2     3.9097 /_   25.2   0.93983
   - 2       2.3632 /_ -124.6   0.98394     4.160        2-3     4.0296 /_  -95.3   0.96865
   - 3       2.2814 /_  115.1   0.94987     4.160        3-1     3.9379 /_  143.4   0.94661
107  2       2.3551 /_ -124.6   0.98056     4.160
109  1       2.2038 /_   -7.4   0.91759     4.160
300  1       2.2136 /_   -7.3   0.92164     4.160        1-2     3.9097 /_   25.2   0.93983
   - 2       2.3632 /_ -124.6   0.98394     4.160        2-3     4.0296 /_  -95.3   0.96865
   - 3       2.2814 /_  115.1   0.94987     4.160        3-1     3.9379 /_  143.4   0.94661
110  1       2.1993 /_   -7.4   0.91569     4.160
111  1       2.1974 /_   -7.4   0.91493     4.160
112  1       2.1978 /_   -7.4   0.91507     4.160
113  1       2.1931 /_   -7.5   0.91311     4.160
114  1        2.192 /_   -7.5   0.91267     4.160
135  1       2.2641 /_   -4.8   0.94267     4.160        1-2     3.9843 /_   27.1   0.95776
   - 2        2.381 /_ -122.9   0.99137     4.160        2-3     4.0693 /_  -93.5   0.97819
   - 3       2.3121 /_  116.9   0.96268     4.160        3-1      3.996 /_  145.7   0.96058
152  1       2.2874 /_   -4.3   0.95238     4.160        1-2      4.015 /_   27.3   0.96515
   - 2       2.3887 /_ -122.6   0.99454     4.160        2-3      4.096 /_  -93.2   0.98463
   - 3       2.3304 /_  117.0    0.9703     4.160        3-1     4.0241 /_  146.0   0.96733
160R 1       2.2307 /_   -6.8   0.92878     4.160        1-2     3.9306 /_   25.5   0.94486
   - 2        2.366 /_ -124.3    0.9851     4.160        2-3     4.0435 /_  -95.1   0.97198
   - 3       2.2897 /_  115.2   0.95333     4.160        3-1     3.9524 /_  143.8    0.9501
160  1       2.2358 /_   -5.9    0.9309     4.160        1-2     3.9394 /_   26.2   0.94696
   - 2       2.3649 /_ -123.7   0.98465     4.160        2-3     4.0414 /_  -94.4   0.97148
   - 3       2.2904 /_  115.8   0.95365     4.160        3-1     3.9542 /_  144.6   0.95053
61S  1       2.2358 /_   -5.9    0.9309     4.160        1-2     3.9394 /_   26.2   0.94696
   - 2       2.3649 /_ -123.7   0.98465     4.160        2-3     4.0414 /_  -94.4   0.97148
   - 3       2.2904 /_  115.8   0.95365     4.160        3-1     3.9542 /_  144.6   0.95053
610  1      0.25153 /_   -5.9   0.90763     0.480        1-2    0.44318 /_   26.2   0.92329
   - 2      0.26605 /_ -123.7   0.96003     0.480        2-3    0.45465 /_  -94.4    0.9472
   - 3      0.25768 /_  115.8   0.92981     0.480        3-1    0.44485 /_  144.6   0.92677
